Version 4
SHEET 1 880 680
WIRE 272 -32 240 -32
WIRE 592 -32 336 -32
WIRE 592 32 592 -32
WIRE 592 32 448 32
WIRE -192 64 -192 32
WIRE 512 144 512 112
WIRE 448 160 448 32
WIRE 464 160 448 160
WIRE 592 176 592 32
WIRE 592 176 528 176
WIRE 624 176 592 176
WIRE -192 192 -192 144
WIRE -96 192 -192 192
WIRE 128 192 48 192
WIRE 240 192 240 -32
WIRE 240 192 208 192
WIRE 272 192 240 192
WIRE 368 192 352 192
WIRE 464 192 368 192
WIRE -192 224 -192 192
WIRE -96 224 -96 192
WIRE 48 224 48 192
WIRE 496 256 496 208
WIRE 48 336 48 304
WIRE -192 368 -192 304
FLAG -192 32 +Vcc
FLAG 512 112 +Vcc
FLAG -192 368 -Vcc
FLAG 496 256 -Vcc
FLAG 368 256 0
FLAG -96 224 0
FLAG 48 336 0
SYMBOL OpAmps\\LM108A 496 112 R0
SYMATTR InstName U1
SYMBOL voltage -192 48 R0
WINDOW 123 0 0 Left 0
WINDOW 39 0 0 Left 0
SYMATTR InstName V1
SYMATTR Value 5
SYMBOL voltage -192 208 R0
WINDOW 123 0 0 Left 0
WINDOW 39 0 0 Left 0
SYMATTR InstName V2
SYMATTR Value 5
SYMBOL res 224 176 R90
WINDOW 0 0 56 VBottom 2
WINDOW 3 32 56 VTop 2
SYMATTR InstName R1
SYMATTR Value 10k
SYMBOL res 368 176 R90
WINDOW 0 0 56 VBottom 2
WINDOW 3 32 56 VTop 2
SYMATTR InstName R2
SYMATTR Value 10k
SYMBOL cap 384 256 R180
WINDOW 0 24 56 Left 2
WINDOW 3 24 8 Left 2
SYMATTR InstName C1
SYMATTR Value 2.2n
SYMBOL cap 336 -48 R90
WINDOW 0 0 32 VBottom 2
WINDOW 3 32 32 VTop 2
SYMATTR InstName C2
SYMATTR Value 3.3n
SYMBOL Misc\\signal 48 208 R0
WINDOW 123 0 0 Left 0
WINDOW 39 0 0 Left 0
SYMATTR InstName V3
TEXT -226 466 Left 2 !.tran 1
