Version 4
SHEET 1 3368 1672
WIRE -704 -32 -800 -32
WIRE -528 -32 -624 -32
WIRE 48 -32 -448 -32
WIRE 192 -16 112 -16
WIRE 240 -16 192 -16
WIRE 368 -16 320 -16
WIRE 416 -16 368 -16
WIRE 624 -16 496 -16
WIRE 48 0 0 0
WIRE 0 96 0 0
WIRE 0 96 -192 96
WIRE -1584 128 -1584 80
WIRE 0 144 0 96
WIRE 48 144 0 144
WIRE 192 144 192 -16
WIRE 192 144 128 144
WIRE 368 240 368 -16
WIRE 416 240 368 240
WIRE -1584 256 -1584 208
WIRE -1584 256 -1696 256
WIRE -1200 256 -1312 256
WIRE -1040 256 -1120 256
WIRE -800 256 -800 -32
WIRE -800 256 -1040 256
WIRE 624 256 624 -16
WIRE 624 256 480 256
WIRE 1248 256 624 256
WIRE 416 272 368 272
WIRE 1440 272 1312 272
WIRE 2032 272 1440 272
WIRE 1248 288 1120 288
WIRE 2240 288 2096 288
WIRE 2320 288 2240 288
WIRE -1696 304 -1696 256
WIRE -1584 304 -1584 256
WIRE 2032 304 1904 304
WIRE -1312 336 -1312 256
WIRE 48 368 0 368
WIRE 192 368 128 368
WIRE 0 416 0 368
WIRE 0 416 -32 416
WIRE 1120 432 1120 288
WIRE 1248 432 1120 432
WIRE 1440 432 1440 272
WIRE 1440 432 1328 432
WIRE -1584 448 -1584 384
WIRE 1904 448 1904 304
WIRE 2032 448 1904 448
WIRE 2240 448 2240 288
WIRE 2240 448 2112 448
WIRE 1904 496 1904 448
WIRE 0 512 0 416
WIRE 48 512 0 512
WIRE 192 528 192 368
WIRE 192 528 112 528
WIRE 240 528 192 528
WIRE 368 528 368 272
WIRE 368 528 320 528
WIRE 416 528 368 528
WIRE 544 528 496 528
WIRE -800 544 -800 256
WIRE -704 544 -800 544
WIRE -528 544 -624 544
WIRE 48 544 -448 544
WIRE -1040 576 -1040 256
WIRE 544 576 544 528
WIRE 1120 576 1120 432
WIRE 1248 576 1120 576
WIRE 1440 576 1440 432
WIRE 1440 576 1312 576
WIRE 1904 608 1904 576
WIRE 1120 624 1120 576
WIRE -192 672 -192 96
WIRE -144 672 -192 672
WIRE -32 672 -32 416
WIRE -32 672 -64 672
WIRE -192 720 -192 672
WIRE -32 720 -32 672
WIRE 1120 736 1120 704
WIRE 928 816 928 768
WIRE -192 848 -192 800
WIRE -32 848 -32 800
WIRE -32 848 -192 848
WIRE -688 912 -752 912
WIRE 736 912 672 912
WIRE 864 912 800 912
WIRE -752 928 -752 912
WIRE -688 992 -688 912
WIRE -688 992 -768 992
WIRE -1040 1008 -1040 656
WIRE -944 1008 -1040 1008
WIRE -832 1008 -944 1008
WIRE -32 1008 -32 848
WIRE -32 1008 -320 1008
WIRE -672 1024 -768 1024
WIRE -592 1024 -672 1024
WIRE -464 1024 -512 1024
WIRE -384 1024 -464 1024
WIRE 864 1024 864 912
WIRE 864 1024 800 1024
WIRE 928 1024 928 896
WIRE 928 1024 864 1024
WIRE -224 1040 -320 1040
WIRE -144 1040 -224 1040
WIRE 672 1040 672 912
WIRE 672 1040 544 1040
WIRE 736 1040 672 1040
WIRE 928 1056 800 1056
WIRE -144 1072 -144 1040
WIRE -464 1104 -464 1024
WIRE -224 1104 -224 1040
WIRE -224 1104 -464 1104
WIRE 928 1104 928 1056
WIRE -944 1152 -944 1008
WIRE -848 1152 -944 1152
WIRE -672 1152 -672 1024
WIRE -672 1152 -768 1152
WIRE -944 1280 -944 1152
WIRE -848 1280 -944 1280
WIRE -672 1280 -672 1152
WIRE -672 1280 -784 1280
FLAG -1696 304 0
FLAG -1584 80 Vcc
FLAG -1584 448 Vee
FLAG 80 -48 Vee
FLAG 80 16 Vcc
FLAG 448 224 Vcc
FLAG 448 288 Vee
FLAG 80 496 Vcc
FLAG 80 560 Vee
FLAG 1280 304 Vcc
FLAG 1280 240 Vee
FLAG 1120 736 0
FLAG 2064 320 Vcc
FLAG 2064 256 Vee
FLAG -752 928 0
FLAG -800 1040 Vcc
FLAG -800 976 Vee
FLAG -1312 336 0
FLAG -352 1056 Vcc
FLAG -352 992 Vee
FLAG -144 1072 0
FLAG 928 1104 0
FLAG 768 1008 Vcc
FLAG 768 1072 Vee
FLAG 544 576 0
FLAG 1904 608 0
SYMBOL OpAmps\\OP07 80 48 M180
SYMATTR InstName U1
SYMBOL OpAmps\\OP07 80 464 R0
SYMATTR InstName U2
SYMBOL res 144 128 R90
WINDOW 0 0 56 VBottom 2
WINDOW 3 32 56 VTop 2
SYMATTR InstName R1
SYMATTR Value 25k
SYMBOL res 144 352 R90
WINDOW 0 0 56 VBottom 2
WINDOW 3 32 56 VTop 2
SYMATTR InstName R2
SYMATTR Value 25k
SYMBOL res 336 -32 R90
WINDOW 0 0 56 VBottom 2
WINDOW 3 32 56 VTop 2
SYMATTR InstName R3
SYMATTR Value 40k
SYMBOL res 336 512 R90
WINDOW 0 0 56 VBottom 2
WINDOW 3 32 56 VTop 2
SYMATTR InstName R4
SYMATTR Value 40k
SYMBOL OpAmps\\OP07 448 192 R0
SYMATTR InstName U3
SYMBOL res 512 -32 R90
WINDOW 0 0 56 VBottom 2
WINDOW 3 32 56 VTop 2
SYMATTR InstName R5
SYMATTR Value 40k
SYMBOL res 512 512 R90
WINDOW 0 0 56 VBottom 2
WINDOW 3 32 56 VTop 2
SYMATTR InstName R6
SYMATTR Value 40k
SYMBOL res -48 656 R90
WINDOW 0 0 56 VBottom 2
WINDOW 3 32 56 VTop 2
SYMATTR InstName Rg
SYMATTR Value 2.37k
SYMBOL OpAmps\\OP07 1280 336 M180
SYMATTR InstName U4
SYMBOL res 1344 416 R90
WINDOW 0 0 56 VBottom 2
WINDOW 3 32 56 VTop 2
SYMATTR InstName R7
SYMATTR Value 100k
SYMBOL res 1104 608 R0
SYMATTR InstName R8
SYMATTR Value 1.8k
SYMBOL OpAmps\\OP07 2064 352 M180
SYMATTR InstName U5
SYMBOL res 2128 432 R90
WINDOW 0 0 56 VBottom 2
WINDOW 3 32 56 VTop 2
SYMATTR InstName R9
SYMATTR Value 100k
SYMBOL res 1888 480 R0
SYMATTR InstName R10
SYMATTR Value 5.6k
SYMBOL cap 1312 560 R90
WINDOW 0 0 32 VBottom 2
WINDOW 3 32 32 VTop 2
SYMATTR InstName C7
SYMATTR Value 0.033µ
SYMBOL res -208 704 R0
SYMATTR InstName R11
SYMATTR Value 22k
SYMBOL res -48 704 R0
SYMATTR InstName R12
SYMATTR Value 22k
SYMBOL res -496 1008 R90
WINDOW 0 0 56 VBottom 2
WINDOW 3 32 56 VTop 2
SYMATTR InstName R13
SYMATTR Value 10k
SYMBOL res -752 1136 R90
WINDOW 0 0 56 VBottom 2
WINDOW 3 32 56 VTop 2
SYMATTR InstName R14
SYMATTR Value 499k
SYMBOL cap -784 1264 R90
WINDOW 0 0 32 VBottom 2
WINDOW 3 32 32 VTop 2
SYMATTR InstName C8
SYMATTR Value 0.0047µ
SYMBOL Misc\\signal -608 -32 R90
WINDOW 0 -32 56 VBottom 2
WINDOW 3 32 56 VTop 2
WINDOW 123 88 60 VBottom 2
WINDOW 39 0 0 Left 0
SYMATTR InstName Electrode1
SYMATTR Value SINE(0 20u 15)
SYMATTR Value2 AC 20u
SYMBOL Misc\\signal -608 544 R90
WINDOW 0 -32 56 VBottom 2
WINDOW 3 32 56 VTop 2
WINDOW 123 60 56 VTop 2
WINDOW 39 0 0 Left 0
SYMATTR InstName Electrode2
SYMATTR Value SINE(0 0u 0)
SYMATTR Value2 AC 0u
SYMBOL Misc\\signal -1104 256 R90
WINDOW 0 -32 56 VBottom 2
WINDOW 3 32 56 VTop 2
WINDOW 123 60 56 VTop 2
WINDOW 39 0 0 Left 0
SYMATTR InstName RightLegElectrode
SYMATTR Value SINE(0 0.1 50)
SYMATTR Value2 AC 0.1
SYMBOL res -432 528 R90
WINDOW 0 0 56 VBottom 2
WINDOW 3 32 56 VTop 2
SYMATTR InstName R15
SYMATTR Value 10k
SYMBOL res -432 -48 R90
WINDOW 0 0 56 VBottom 2
WINDOW 3 32 56 VTop 2
SYMATTR InstName R16
SYMATTR Value 10k
SYMBOL res -1056 560 R0
SYMATTR InstName R17
SYMATTR Value 10k
SYMBOL res 912 800 R0
SYMATTR InstName R19
SYMATTR Value 3300k
SYMBOL cap 800 896 R90
WINDOW 0 0 32 VBottom 2
WINDOW 3 32 32 VTop 2
SYMATTR InstName C1
SYMATTR Value 0.1µ
SYMBOL voltage -1584 288 R0
SYMATTR InstName V1
SYMATTR Value 9
SYMBOL voltage -1584 112 R0
SYMATTR InstName V2
SYMATTR Value 9
SYMBOL OpAmps\\OP227 -352 1088 R180
SYMATTR InstName U7
SYMBOL OpAmps\\OP227 -800 1072 R180
SYMATTR InstName U8
SYMBOL OpAmps\\OP07 768 976 M0
SYMATTR InstName U6
TEXT -16 -232 Left 3 ;INA819 Instrumentation Amplifier\nG1 = 22.10\nSim G1 = 23.2
TEXT 1096 72 Left 3 ;Stage 2 Non-inverting Op Amp\nG2 = 56.56\nSim G2 = 53.99
TEXT -1792 -16 Left 3 ;Voltage Source 2x 9V Batteries
TEXT 1880 72 Left 3 ;Stage 3 Non-inverting Op Amp\nG3 = 18.86\nSim G3 = 18.88
TEXT 2504 240 Left 2 ;Current total gain = 23572.70\n-100uV ~ +100uV after gain = 4.7145Vpp < 5Vpp\n \nSim total gain = 23648.48\n-100uV ~ +100uV after gain = 4.7297Vpp
TEXT 1112 808 Left 2 ;Capacitor acts as active low-pass filter \nfor fc = 1/(2*pi*C*100k) = 48.2288Hz
TEXT -992 1376 Left 2 ;Common mode rejection is improved by a factor of (1 + A). \nThis means a higher gain will improve the circuit"s CMRR, \nas long as there are no stability issues caused by relatively \nhigh gains.
TEXT -976 816 Left 3 ;Driven Right Leg Inverting Op Amp\nG = -49.9
TEXT -520 1168 Left 2 ;Buffer op amp provides low-impedance\nconnection to right leg electrode.
TEXT -1720 536 Left 2 !;ac dec 100 1m 50k
TEXT -1720 584 Left 2 !.tran 0 0.5 0
TEXT 88 744 Left 2 ;Rg determines gain of instrumentation \namplifier INA819. A = 1 + 50k/Rg
TEXT 512 1176 Left 2 ;Optional high-pass filter that connects Rref and the \noutput of the instrumentation amplifier. Connect U6's\noutput with R6 instead of ground. Different C1 value\nwill affect offset of INA819.
