Version 4
SHEET 1 2612 744
WIRE 1024 -144 928 -144
WIRE 80 -128 80 -144
WIRE 928 -64 928 -144
WIRE 80 -48 80 -64
WIRE 1648 -32 1552 -32
WIRE 192 -16 112 -16
WIRE 240 -16 192 -16
WIRE 368 -16 320 -16
WIRE 416 -16 368 -16
WIRE 624 -16 496 -16
WIRE 1024 -16 1024 -64
WIRE 1088 -16 1024 -16
WIRE 1232 -16 1168 -16
WIRE 48 0 0 0
WIRE -512 16 -512 -32
WIRE 80 32 80 16
WIRE 1552 48 1552 -32
WIRE 1024 96 1024 -16
WIRE 1104 96 1024 96
WIRE 1232 96 1232 -16
WIRE 1232 96 1168 96
WIRE 1648 96 1648 48
WIRE 1712 96 1648 96
WIRE 1856 96 1792 96
WIRE 80 112 80 96
WIRE -512 144 -512 96
WIRE -512 144 -624 144
WIRE 0 144 0 0
WIRE 0 144 -112 144
WIRE 448 144 448 128
WIRE -624 192 -624 144
WIRE -512 192 -512 144
WIRE 0 192 0 144
WIRE 48 192 0 192
WIRE 192 192 192 -16
WIRE 192 192 128 192
WIRE 1648 208 1648 96
WIRE 1712 208 1648 208
WIRE 448 224 448 208
WIRE 1024 224 1024 96
WIRE 1088 224 1024 224
WIRE 1856 224 1856 96
WIRE 1856 224 1776 224
WIRE 1952 224 1856 224
WIRE 368 240 368 -16
WIRE 416 240 368 240
WIRE 1232 240 1232 96
WIRE 1232 240 1152 240
WIRE 1328 240 1232 240
WIRE 1712 240 1504 240
WIRE 624 256 624 -16
WIRE 624 256 480 256
WIRE 704 256 624 256
WIRE 1088 256 880 256
WIRE 416 272 368 272
WIRE 448 304 448 288
WIRE 48 320 0 320
WIRE 192 320 128 320
WIRE -512 336 -512 272
WIRE 0 368 0 320
WIRE 0 368 -32 368
WIRE 448 384 448 368
WIRE 80 416 80 400
WIRE 80 496 80 480
WIRE 0 512 0 368
WIRE 48 512 0 512
WIRE 192 528 192 320
WIRE 192 528 112 528
WIRE 240 528 192 528
WIRE 368 528 368 272
WIRE 368 528 320 528
WIRE 416 528 368 528
WIRE 624 528 624 256
WIRE 624 528 496 528
WIRE 688 528 624 528
WIRE 720 528 688 528
WIRE 80 576 80 560
WIRE 80 656 80 640
WIRE -112 672 -112 144
WIRE -32 672 -32 368
FLAG -624 192 0
FLAG -512 -32 Vcc
FLAG -512 336 Vee
FLAG 80 -144 Vee
FLAG 80 112 Vcc
FLAG 448 128 Vcc
FLAG 448 384 Vee
FLAG 80 400 Vcc
FLAG 80 656 Vee
FLAG 688 528 REF
FLAG 1120 208 Vcc
FLAG 1120 272 Vee
FLAG 928 -64 0
FLAG 1744 192 Vcc
FLAG 1744 256 Vee
FLAG 1552 48 0
SYMBOL OpAmps\\OP07 80 48 M180
SYMATTR InstName U1
SYMBOL OpAmps\\OP07 80 464 R0
SYMATTR InstName U2
SYMBOL voltage -512 0 R0
SYMATTR InstName Battery1
SYMATTR Value 9
SYMBOL voltage -512 176 R0
SYMATTR InstName Battery2
SYMATTR Value 9
SYMBOL res 144 176 R90
WINDOW 0 0 56 VBottom 2
WINDOW 3 32 56 VTop 2
SYMATTR InstName R1
SYMATTR Value 25k
SYMBOL res 144 304 R90
WINDOW 0 0 56 VBottom 2
WINDOW 3 32 56 VTop 2
SYMATTR InstName R2
SYMATTR Value 25k
SYMBOL res 336 -32 R90
WINDOW 0 0 56 VBottom 2
WINDOW 3 32 56 VTop 2
SYMATTR InstName R3
SYMATTR Value 40k
SYMBOL res 336 512 R90
WINDOW 0 0 56 VBottom 2
WINDOW 3 32 56 VTop 2
SYMATTR InstName R4
SYMATTR Value 40k
SYMBOL OpAmps\\OP07 448 192 R0
SYMATTR InstName U3
SYMBOL res 512 -32 R90
WINDOW 0 0 56 VBottom 2
WINDOW 3 32 56 VTop 2
SYMATTR InstName R5
SYMATTR Value 40k
SYMBOL res 512 512 R90
WINDOW 0 0 56 VBottom 2
WINDOW 3 32 56 VTop 2
SYMATTR InstName R6
SYMATTR Value 40k
SYMBOL res -16 656 R90
WINDOW 0 0 56 VBottom 2
WINDOW 3 32 56 VTop 2
SYMATTR InstName Rg
SYMATTR Value 2.5k
SYMBOL cap 64 -128 R0
SYMATTR InstName C1
SYMATTR Value 0.1µ
SYMBOL cap 64 576 R0
SYMATTR InstName C2
SYMATTR Value 0.1µ
SYMBOL cap 64 416 R0
SYMATTR InstName C3
SYMATTR Value 0.1µ
SYMBOL cap 64 32 R0
SYMATTR InstName C4
SYMATTR Value 0.1µ
SYMBOL cap 432 304 R0
SYMATTR InstName C5
SYMATTR Value 0.1µ
SYMBOL cap 432 144 R0
SYMATTR InstName C6
SYMATTR Value 0.1µ
SYMBOL OpAmps\\OP07 1120 176 R0
SYMATTR InstName U4
SYMBOL res 1184 -32 R90
WINDOW 0 0 56 VBottom 2
WINDOW 3 32 56 VTop 2
SYMATTR InstName R7
SYMATTR Value 100k
SYMBOL res 1008 -160 R0
SYMATTR InstName R8
SYMATTR Value 1.82k
SYMBOL OpAmps\\OP07 1744 160 R0
SYMATTR InstName U5
SYMBOL res 1808 80 R90
WINDOW 0 0 56 VBottom 2
WINDOW 3 32 56 VTop 2
SYMATTR InstName R9
SYMATTR Value 100k
SYMBOL res 1632 -48 R0
SYMATTR InstName R10
SYMATTR Value 5.6k
SYMBOL cap 1168 80 R90
WINDOW 0 0 32 VBottom 2
WINDOW 3 32 32 VTop 2
SYMATTR InstName C7
SYMATTR Value 0.033µ
TEXT 80 -312 Left 2 ;INA819 Instrumentation Amplifier
TEXT 936 -312 Left 2 ;Stage 2 Non-inverting Op Amp
TEXT -624 -312 Left 2 ;Voltage Source 2x 9V Batteries
TEXT 1552 -312 Left 2 ;Stage 3 Non-inverting Op Amp
TEXT 944 -272 Left 2 ;G2 = 55.95
TEXT 1568 -272 Left 2 ;G3 = 18.86
TEXT 96 -272 Left 2 ;G1 = 21
TEXT 2152 -16 Left 2 ;Current total gain = 22156
TEXT 2152 24 Left 2 ;-100uV ~ +100uV after gain = 4.43Vpp
